Modified 4 Bus/6 Node Base System/4busDYBal_VLN_Node.Txt

LINE-GROUND and LINE-LINE VOLTAGES BY BUS & NODE

Bus       Node    VLN (kV)   Angle      pu     Base kV    Node-Node   VLL (kV)  Angle      pu

SOURCEBUS 1       7.1993 /_    0.0   0.99997    12.470        1-2      12.47 /_   30.0   0.99997
   -      2       7.1993 /_ -120.0   0.99997    12.470        2-3      12.47 /_  -90.0   0.99997
   -      3       7.1993 /_  120.0   0.99997    12.470        3-1      12.47 /_  150.0   0.99997
N2 ...... 1       7.0968 /_   -0.3   0.98572    12.470        1-2      12.32 /_   29.7   0.98796
   -      2       7.1229 /_ -120.4   0.98936    12.470        2-3     12.329 /_  -90.5    0.9887
   -      3        7.109 /_  119.5   0.98742    12.470        3-1     12.293 /_  149.6   0.98583
N3 ...... 1       2.2222 /_  -34.2   0.92522     4.160        1-2     3.8566 /_   -3.9   0.92706
   -      2       2.2395 /_ -153.9   0.93245     4.160        2-3     3.8797 /_ -124.0   0.93263
   -      3       2.2344 /_   85.9   0.93031     4.160        3-1     3.8616 /_  115.7   0.92828
N4 ...... 1       1.8407 /_  -40.6   0.76637     4.160        1-2     3.3123 /_   -8.6   0.79623
   -      2       2.0026 /_ -159.6   0.83381     4.160        2-3     3.4137 /_ -130.7   0.82059
   -      3       1.9195 /_   79.5    0.7992     4.160        3-1      3.257 /_  108.8   0.78294
N5 ...... 1       1.8266 /_  -40.8    0.7605     4.160        1-2      3.291 /_   -8.9    0.7911
   -      2       1.9921 /_ -159.8   0.82942     4.160        2-3     3.3952 /_ -131.0   0.81615
   -      3       1.9077 /_   79.1   0.79429     4.160        3-1     3.2339 /_  108.4   0.77737
N6 ...... 1       1.8125 /_  -41.1   0.75465     4.160        1-2     3.2697 /_   -9.1   0.78598
   -      2       1.9816 /_ -160.1   0.82505     4.160        2-3     3.3768 /_ -131.3   0.81173
   -      3        1.896 /_   78.8    0.7894     4.160        3-1     3.2108 /_  108.1   0.77183
